Circuit: * LUT_filenum = Test5, previous doping distibution = None, previous length distribution = None

WARNING: Less than two connections to node NV2.  This node is used by V2.
WARNING: Less than two connections to node NV3.  This node is used by V3.
WARNING: Less than two connections to node NV4.  This node is used by V4.
WARNING: Less than two connections to node NV5.  This node is used by V5.

Date: Sat Apr 06 12:00:12 2024
Total elapsed time: 3.913 seconds.

tnom = 27
temp = 27
method = trap
totiter = 473
traniter = 0
tranpoints = 0
accept = 0
rejected = 0
matrix size = 653
fillins = 3106
solver = Normal

