Circuit: * LUT_filenum = Test5, previous doping distibution = Report things 2 Random length and doping\poisson_doping_dist_Si 15x15 ND 1e16 L 15um T 300K NT 4e11 Point Contacts.txt, previous length distribution = Report things 2 Random length and doping\exp_length_dist_Si 15x15 ND 1e16 L 15um T 300K NT 4e11 Point Contacts.txt

WARNING: Less than two connections to node NV1.  This node is used by V1.
WARNING: Less than two connections to node NV3.  This node is used by V3.
WARNING: Less than two connections to node NV4.  This node is used by V4.
WARNING: Less than two connections to node NV5.  This node is used by V5.

Date: Wed Jun 26 19:55:24 2024
Total elapsed time: 4.089 seconds.

tnom = 27
temp = 27
method = trap
totiter = 405
traniter = 0
tranpoints = 0
accept = 0
rejected = 0
matrix size = 652
fillins = 3070
solver = Normal

