Circuit: * LUT_filenum = Test2, previous doping distibution = Report things 2 Random length and doping\poisson_doping_dist_Si 15x15 ND 1e16 L 15um T 300K NT 4e11 Point Contacts.txt, previous length distribution = Report things 2 Random length and doping\exp_length_dist_Si 15x15 ND 1e16 L 15um T 300K NT 4e11 Point Contacts.txt

Early termination of direct N-R iteration.
Direct Newton iteration failed to find .op point.  (Use ".option noopiter" to skip.)
Starting Gmin stepping
Gmin = 10
Gmin = 1.07374
Gmin = 0.115292
Gmin = 0.0123794
Gmin = 0.00132923
Gmin = 0.000142725
Gmin = 1.5325e-005
Gmin = 1.6455e-006
Gmin = 1.76685e-007
Gmin = 1.89714e-008
Gmin = 2.03704e-009
Gmin = 2.18725e-010
Gmin = 2.34854e-011
Gmin = 2.52173e-012
Gmin = 2.70769e-013
Gmin = 0
Gmin stepping succeeded in finding the operating point.


Date: Thu Apr 04 14:30:28 2024
Total elapsed time: 2.503 seconds.

tnom = 27
temp = 27
method = trap
totiter = 1080
traniter = 0
tranpoints = 0
accept = 0
rejected = 0
matrix size = 639
fillins = 2842
solver = Normal
Thread vector: 2584.6/1234.6[8] 0.0/0.0[0] 76.1/29.0[8] 4.6/6.9[1]  2592/500
Matrix Compiler1:   17793 opcodes  90.4/59.4/[61.3]
Matrix Compiler2: 99.52 KB object code size  25.6/419.2/[16.4]

