Circuit: * LUT_filenum = Test5, previous doping distibution = None, previous length distribution = None

WARNING: Less than two connections to node X00Y14.  This node is used by RX0Y14.
Early termination of direct N-R iteration.
Direct Newton iteration failed to find .op point.  (Use ".option noopiter" to skip.)
Starting Gmin stepping
Gmin = 10
Gmin = 1.07374
Gmin = 0.115292
Gmin = 0.0123794
Gmin = 0.00132923
Gmin = 0.000142725
Gmin = 1.5325e-005
Gmin = 1.6455e-006
Gmin = 1.76685e-007
Gmin = 1.89714e-008
Gmin = 2.03704e-009
Gmin = 2.18725e-010
Gmin = 2.34854e-011
Gmin = 2.52173e-012
Gmin = 2.70769e-013
Gmin = 0
Gmin stepping succeeded in finding the operating point.


Date: Thu Apr 04 17:12:31 2024
Total elapsed time: 2.718 seconds.

tnom = 27
temp = 27
method = trap
totiter = 1043
traniter = 0
tranpoints = 0
accept = 0
rejected = 0
matrix size = 640
fillins = 2884
solver = Normal
Thread vector: 2579.8/1509.8[8] 0.0/0.0[0] 152.1/77.9[8] 4.8/6.3[1]  2592/500
Matrix Compiler1:   18335 opcodes  84.1/57.4/[52.9]
Matrix Compiler2: 100.25 KB object code size  29.4/16.0/[14.3]

