Circuit: * LUT_filenum = Test5, previous doping distibution = None, previous length distribution = None

WARNING: Less than two connections to node NV2.  This node is used by V2.
WARNING: Less than two connections to node NV3.  This node is used by V3.
WARNING: Less than two connections to node NV4.  This node is used by V4.
WARNING: Less than two connections to node NV5.  This node is used by V5.

Date: Sat Apr 06 23:51:06 2024
Total elapsed time: 5.231 seconds.

tnom = 27
temp = 27
method = trap
totiter = 460
traniter = 0
tranpoints = 0
accept = 0
rejected = 0
matrix size = 653
fillins = 3106
solver = Normal
Thread vector: 6240.5/2480.3[8] 0.0/0.0[0] 756.4/254.1[8] 16.6/157.7[1]  2592/500
Matrix Compiler1: 385.88 KB object code size  535.2/347.4/[96.4]
Matrix Compiler2: off  [26.4]/883.1/29.4

