Circuit: * LUT_filenum = Test5, previous doping distibution = Report things 2 Random length and doping\poisson_doping_dist_Si 15x15 ND 1e16 L 15um T 300K NT 4e11 MIMG 5 in (14) 5.txt, previous length distribution = Report things 2 Random length and doping\exp_length_dist_Si 15x15 ND 1e16 L 15um T 300K NT 4e11 MIMG 5 in (14) 5.txt

WARNING: Less than two connections to node NV2.  This node is used by V2.
WARNING: Less than two connections to node NV3.  This node is used by V3.
WARNING: Less than two connections to node NV4.  This node is used by V4.
WARNING: Less than two connections to node NV5.  This node is used by V5.

Date: Thu Apr 04 17:16:42 2024
Total elapsed time: 4.704 seconds.

tnom = 27
temp = 27
method = trap
totiter = 473
traniter = 0
tranpoints = 0
accept = 0
rejected = 0
matrix size = 653
fillins = 3106
solver = Normal
Thread vector: 4752.8/2151.3[8] 0.0/0.0[0] 99.3/59.9[8] 14.4/17.2[1]  2592/500
Matrix Compiler1:   20192 opcodes  182.7/[104.4]/117.6
Matrix Compiler2: 104.68 KB object code size  32.6/105.0/[28.3]

