Circuit: * LUT_filenum = Test4, previous doping distibution = None, previous length distribution = None

WARNING: Less than two connections to node NV2.  This node is used by V2.
WARNING: Less than two connections to node NV3.  This node is used by V3.

Date: Tue Apr 02 20:55:15 2024
Total elapsed time: 3.372 seconds.

tnom = 27
temp = 27
method = trap
totiter = 469
traniter = 0
tranpoints = 0
accept = 0
rejected = 0
matrix size = 649
fillins = 3126
solver = Normal
Thread vector: 2321.2/1498.2[8] 0.0/0.0[0] 106.7/48.1[8] 8.1/17.5[1]  2592/500
Matrix Compiler1: 386.55 KB object code size  156.3/72.1/[62.5]
Matrix Compiler2: 104.87 KB object code size  22.6/19.7/[13.0]

