Circuit: * LUT_filenum = Test5, previous doping distibution = Report things 2 Random length and doping\poisson_doping_dist_Si 15x15 ND 1e16 L 15um T 300K NT 4e11 Point Contacts.txt, previous length distribution = Report things 2 Random length and doping\exp_length_dist_Si 15x15 ND 1e16 L 15um T 300K NT 4e11 Point Contacts.txt

WARNING: Less than two connections to node NV3.  This node is used by V3.
WARNING: Less than two connections to node NV4.  This node is used by V4.
WARNING: Less than two connections to node NV5.  This node is used by V5.
Early termination of direct N-R iteration.
Direct Newton iteration failed to find .op point.  (Use ".option noopiter" to skip.)
Starting Gmin stepping
Gmin = 10
Gmin = 1.07374
Gmin = 0.115292
Gmin = 0.0123794
Gmin = 0.00132923
Gmin = 0.000142725
Gmin = 1.5325e-005
Gmin = 1.6455e-006
Gmin = 1.76685e-007
Gmin = 1.89714e-008
Gmin = 2.03704e-009
Gmin = 2.18725e-010
Gmin = 2.34854e-011
Gmin = 2.52173e-012
Gmin = 2.70769e-013
Gmin = 0
Gmin stepping succeeded in finding the operating point.


Date: Thu Apr 18 14:35:35 2024
Total elapsed time: 5.683 seconds.

tnom = 27
temp = 27
method = trap
totiter = 991
traniter = 0
tranpoints = 0
accept = 0
rejected = 0
matrix size = 652
fillins = 3056
solver = Normal
Thread vector: 3728.9/1729.5[8] 0.0/0.0[0] 148.4/42.0[8] 16.1/9.4[5]  2592/500
Matrix Compiler1:   19172 opcodes  131.1/171.9/[107.8]
Matrix Compiler2: 103.84 KB object code size  64.6/45.3/[40.2]

