Circuit: * LUT_filenum = Test5, previous doping distibution = None, previous length distribution = None

WARNING: Less than two connections to node NV2.  This node is used by V2.
WARNING: Less than two connections to node NV3.  This node is used by V3.
WARNING: Less than two connections to node NV4.  This node is used by V4.
WARNING: Less than two connections to node NV5.  This node is used by V5.

Date: Sat Apr 06 17:41:30 2024
Total elapsed time: 5.193 seconds.

tnom = 27
temp = 27
method = trap
totiter = 463
traniter = 0
tranpoints = 0
accept = 0
rejected = 0
matrix size = 653
fillins = 3106
solver = Normal
Thread vector: 5216.0/2345.8[6] 0.0/0.0[0] 203.6/52.4[6] 15.6/26.8[1]  2592/500
Matrix Compiler1: 385.88 KB object code size  398.3/645.2/[133.5]
Matrix Compiler2: 104.68 KB object code size  85.9/138.1/[26.3]

