Circuit: * LUT_filenum = Test5, previous doping distibution = None, previous length distribution = None

WARNING: Less than two connections to node NV2.  This node is used by V2.
WARNING: Less than two connections to node NV3.  This node is used by V3.
WARNING: Less than two connections to node NV4.  This node is used by V4.
WARNING: Less than two connections to node NV5.  This node is used by V5.

Date: Wed Apr 10 15:17:43 2024
Total elapsed time: 5.919 seconds.

tnom = 27
temp = 27
method = trap
totiter = 460
traniter = 0
tranpoints = 0
accept = 0
rejected = 0
matrix size = 653
fillins = 3106
solver = Normal
Thread vector: 4168.3/2442.9[7] 0.0/0.0[0] 170.7/75.1[7] 17.6/30.0[1]  2592/500
Matrix Compiler1: 385.88 KB object code size  1637.5/196.6/[95.6]
Matrix Compiler2: 104.68 KB object code size  37.9/42.1/[24.6]

