Circuit: * The title

WARNING: Less than two connections to node NV2.  This node is used by V2.

Date: Fri Mar 29 19:59:56 2024
Total elapsed time: 0.153 seconds.

tnom = 27
temp = 27
method = trap
totiter = 313
traniter = 0
tranpoints = 0
accept = 0
rejected = 0
matrix size = 67
fillins = 134
solver = Normal
Thread vector: 61.8/42.0[4] 0.0/0.0[0] 8.6/2.4[4] 0.4/1.7[1]  2592/500
Matrix Compiler1: 10.77 KB object code size  3.5/2.6/[0.9]
Matrix Compiler2: 7.39 KB object code size  1.2/1.8/[0.5]

