Circuit: * The title


Date: Mon Feb 26 16:07:01 2024
Total elapsed time: 0.012 seconds.

tnom = 27
temp = 27
method = trap
totiter = 519
traniter = 0
tranpoints = 0
accept = 0
rejected = 0
matrix size = 4
fillins = 0
solver = Normal
Matrix Compiler1: 100 bytes object code size  0.1/0.0/[0.0]
Matrix Compiler2: off  [0.0]/0.0/0.0

