Circuit: * The title


Date: Fri Apr 05 17:31:26 2024
Total elapsed time: 0.026 seconds.

tnom = 27
temp = 27
method = trap
totiter = 472
traniter = 0
tranpoints = 0
accept = 0
rejected = 0
matrix size = 4
fillins = 0
solver = Normal
Matrix Compiler1: 100 bytes object code size  0.1/0.1/[0.0]
Matrix Compiler2: 248 bytes object code size  0.1/0.1/[0.1]

