Circuit: * LUT_filenum = Test1 273K, previous doping distibution = Report things 2 Random length and doping\poisson_doping_dist_Si 15x15 ND 1e16 L 15um T 300K NT 4e11 Point Contacts.txt, previous length distribution = Report things 2 Random length and doping\exp_length_dist_Si 15x15 ND 1e16 L 15um T 300K NT 4e11 Point Contacts.txt

WARNING: Less than two connections to node NV2.  This node is used by V2.
WARNING: Less than two connections to node NV3.  This node is used by V3.

Date: Tue Apr 02 23:27:48 2024
Total elapsed time: 3.714 seconds.

tnom = 27
temp = 27
method = trap
totiter = 477
traniter = 0
tranpoints = 0
accept = 0
rejected = 0
matrix size = 649
fillins = 3126
solver = Normal
Thread vector: 2637.8/1520.7[8] 0.0/0.0[0] 100.5/46.3[8] 11.9/116.3[1]  2592/500
Matrix Compiler1: 386.55 KB object code size  148.4/77.9/[67.0]
Matrix Compiler2: 104.87 KB object code size  22.5/23.6/[17.9]

