Circuit: * LUT_filenum = Test1 325K, previous doping distibution = Report things 2 Random length and doping\poisson_doping_dist_Si 15x15 ND 1e16 L 15um T 300K NT 4e11 Point Contacts.txt, previous length distribution = Report things 2 Random length and doping\exp_length_dist_Si 15x15 ND 1e16 L 15um T 300K NT 4e11 Point Contacts.txt

WARNING: Less than two connections to node NV2.  This node is used by V2.
WARNING: Less than two connections to node NV3.  This node is used by V3.
Early termination of direct N-R iteration.
Direct Newton iteration failed to find .op point.  (Use ".option noopiter" to skip.)
Starting Gmin stepping
Gmin = 10
Gmin = 1.07374
Gmin = 0.115292
Gmin = 0.0123794
Gmin = 0.00132923
Gmin = 0.000142725
Gmin = 1.5325e-005
Gmin = 1.6455e-006
Gmin = 1.76685e-007
Gmin = 1.89714e-008
Gmin = 2.03704e-009
Gmin = 2.18725e-010
Gmin = 2.34854e-011
Gmin = 2.52173e-012
Gmin = 2.70769e-013
Gmin = 0
Gmin stepping succeeded in finding the operating point.


Date: Mon Apr 01 18:11:37 2024
Total elapsed time: 3.718 seconds.

tnom = 27
temp = 27
method = trap
totiter = 912
traniter = 0
tranpoints = 0
accept = 0
rejected = 0
matrix size = 649
fillins = 3126
solver = Normal
Thread vector: 2487.6/1465.1[8] 0.0/0.0[0] 72.7/38.6[8] 7.2/10.6[1]  2592/500
Matrix Compiler1:   20226 opcodes  137.1/[71.9]/78.8
Matrix Compiler2: 104.87 KB object code size  43.9/21.2/[18.3]

