Circuit: * The title

WARNING: Less than two connections to node NV2.  This node is used by V2.

Date: Wed Mar 27 17:59:55 2024
Total elapsed time: 0.069 seconds.

tnom = 27
temp = 27
method = trap
totiter = 822
traniter = 0
tranpoints = 0
accept = 0
rejected = 0
matrix size = 67
fillins = 134
solver = Normal
Thread vector: 16.6/8.3[4] 0.0/0.0[0] 1.7/1.1[4] 0.2/0.9[1]  2592/500
Matrix Compiler1: 10.77 KB object code size  1.6/1.0/[0.4]
Matrix Compiler2: 7.39 KB object code size  0.4/0.7/[0.3]

